test/data/dist/simulink_model.dss

Clear
New Circuit.simulink_model
!  define a really stiff source
~ basekv=0.48 BaseMVA=1  pu=0.9959  MVAsc1=1e6  MVAsc3=1e6

!Define Linecodes


New linecode.simpleline nphases=3 basefreq=60  ! ohms per 5 mile
~ rmatrix = ( 0.0390 | 0.0000    0.0390 |  0.0000    0.0000    0.0390)
~ xmatrix = ( 0.0267 |  0.000    0.0267 | 0.000    0.000    0.0267)

New Transformer.TX1 windings=2 phases=3 Buses=[Primary invbus]
~ Conns=[Delta Wye]
~ kVs=[.48 .48]
~ kVAs=[100 100]
~ %Rs=[1 1]
~ xhl=6
~ %noloadloss=0
~ %imag=0


!Define lines

New Line.cable1  bus1=sourcebus.1.2.3  Primary.1.2.3  linecode = simpleline   length=1  ! 5 mile line
New Line.cable2   Bus1=invbus.1.2.3  midbus.1.2.3  linecode = simpleline  length=1   ! 100 ft
New Line.cable3    Bus1=midbus.1.2.3  loadbus.1.2.3  linecode = simpleline  length=1   ! 100 ft


!Loads - single phase

New Load.L1 phases=3  bus1=loadbus.1.2.3  Conn=Wye kW=60  kvar=30  model=1 kV=.48

New PVSystem.PV1 phases=3 bus1=Primary.1.2.3 kv=0.48 conn=wye irradiance=1 Pmpp=50 kva=50 pf=1 balanced=true limitcurrent=true vminpu=0.9090909


Set voltagebases=[0.48]
Set tolerance=0.000001
set defaultbasefreq=60
Calcvoltagebases

batchedit load..* enable=false
batchedit capacitor..* enabled=false
new fault.test phases=3 bus1=loadbus.1.2.3 r=.005 enabled=true

Solve mode=snap

set mode=dynamic controlmode=time
set stepsize=.0002s
number=800
solve
